[Config Pithos]
description = Combined Peer/ Super peer network
**.churnGeneratorTypes = "oversim.common.NoChurn oversim.common.NoChurn oversim.common.NoChurn"

**-0[*].overlayType = "oversim.applications.i3.OverlayDummyModules"
**-0[*].tier1Type = "oversim.applications.pithos.Directory"
**.churnGenerator[0].targetOverlayTerminalNum = 1
**.churnGenerator[0].initPhaseCreationInterval = 0.00001s

**-1[*].numTiers = 2
**-1[*].overlayType = "oversim.overlay.pastry.PastryModules"
**-1[*].tier1Type = "oversim.applications.pithos.Super_peer"
**-1[*].tier2Type = "oversim.applications.pithos.GameModule"
**-1[*].enableNewLeafs = false
**-1[*].neighborCache.enableNeighborCache = true
**.churnGenerator[1].targetOverlayTerminalNum = 10
**.churnGenerator[1].initPhaseCreationInterval = 0.0001s

**-2[*].numTiers = 2
**-2[*].overlayType = "oversim.applications.i3.OverlayDummyModules"
**-2[*].tier1Type = "oversim.applications.pithos.Peer"
**-2[*].tier2Type = "oversim.applications.pithos.GameModule"
**.churnGenerator[2].targetOverlayTerminalNum = 200
**.churnGenerator[2].initPhaseCreationInterval = 0.001s

**.directory_ip = "1.0.0.1"
**.directory_port = 2000
**.wait_time = 1000s
**.generation_time = 30s

sim-time-limit = 20000s

[Config PastryLarge]
description = Pastry (SimpleUnderlayNetwork, no churn, large-scale test -> run without GUI)
**.churnGeneratorTypes = "oversim.common.NoChurn"
**.overlayType = "oversim.overlay.pastry.PastryModules"
**.enableNewLeafs = false
**.tier1Type = "oversim.applications.kbrtestapp.KBRTestAppModules"
**.targetOverlayTerminalNum = 14999
**.neighborCache.enableNeighborCache = true

sim-time-limit = 20000s

[Config ChordDht]
description = Chord DHT (SimpleUnderlayNetwork)
*.underlayConfigurator.churnGeneratorTypes = "oversim.common.LifetimeChurn"
**.lifetimeMean = 10000s
**.measurementTime = 1000s
**.transitionTime = 100s
**.overlayType = "oversim.overlay.chord.ChordModules"
**.numTiers = 2
**.tier1Type = "oversim.applications.dht.DHTModules"
**.tier2Type = "oversim.tier2.dhttestapp.DHTTestAppModules"
**.globalObserver.globalFunctions[0].functionType = "oversim.tier2.dhttestapp.GlobalDhtTestMap"
**.globalObserver.numGlobalFunctions = 1
**.targetOverlayTerminalNum = 100
**.initPhaseCreationInterval = 0.1s
**.debugOutput = false
**.drawOverlayTopology = true
**.tier1*.dht.numReplica = 4

[Config ChordDhtTrace]
description = Chord/DHT trace test (SimpleUnderlayNetwork)
**.overlayType = "oversim.overlay.chord.ChordModules"
**.numTiers = 2
**.tier1Type = "oversim.applications.dht.DHTModules"
**.tier2Type = "oversim.tier2.dhttestapp.DHTTestAppModules"
**.globalObserver.globalFunctions[0].functionType = "oversim.tier2.dhttestapp.GlobalDhtTestMap"
**.globalObserver.numGlobalFunctions = 1
**.tier2.dhtTestApp.testInterval = 0s
**.churnGeneratorTypes = "oversim.common.TraceChurn"
**.traceFile = "dht.trace"

[Config Vast]
description = VAST (SimpleUnderlayNetwork, RandomRoaming)
*.underlayConfigurator.churnGeneratorTypes = "oversim.common.LifetimeChurn"
**.overlayType = "oversim.overlay.vast.OverlayVast"
**.targetOverlayTerminalNum = 128
**.tier1Type = "oversim.applications.simplegameclient.SimpleGameClientModules"
**.areaDimension = 1000.0
*.globalObserver.numGlobalFunctions = 1
*.globalObserver.globalFunctions[0].functionType = "oversim.overlay.vast.GlobalVastModules"

[Config VastGroup]
description = VAST (SimpleUnderlayNetwork, GroupRoaming)
*.underlayConfigurator.churnGeneratorTypes = "oversim.common.LifetimeChurn"
**.overlayType = "oversim.overlay.vast.OverlayVast"
**.targetOverlayTerminalNum = 30
**.tier1Type = "oversim.applications.simplegameclient.SimpleGameClientModules"
**.areaDimension = 1000.0
**.tier1.*.movementGenerator = "groupRoaming"
**.tier1.*.groupSize = 16
*.globalObserver.numGlobalFunctions = 1
*.globalObserver.globalFunctions[0].functionType = "oversim.overlay.vast.GlobalVastModules"

[Config Quon]
description = Quon (SimpleUnderlayNetwork, RandomRoaming)
**.overlayType = "oversim.overlay.quon.OverlayQuon"
**.overlay.*.connectionLimit = 0
**.targetOverlayTerminalNum = 256
**.areaDimension = 5000.0
**.tier1Type = "oversim.applications.simplegameclient.SimpleGameClientModules"
*.globalObserver.numGlobalFunctions = 1
*.globalObserver.globalFunctions[0].functionType = "oversim.overlay.quon.GlobalQuonModules"

[Config QuonGroup]
description = Quon (SimpleUnderlayNetwork, GroupRoaming)
**.overlayType = "oversim.overlay.quon.OverlayQuon"
**.overlay.*.contactBackupIntervall = 0s
**.overlay.*.connectionLimit = 0
**.targetOverlayTerminalNum = 256
**.areaDimension = 5000.0
**.tier1Type = "oversim.applications.simplegameclient.SimpleGameClientModules"
**.tier1.*.movementGenerator = "groupRoaming"
**.tier1.*.groupSize = 16
*.globalObserver.numGlobalFunctions = 1
*.globalObserver.globalFunctions[0].functionType = "oversim.overlay.quon.GlobalQuonModules"

[Config QuonNoBackup]
description = Quon (SimpleUnderlayNetwork, GroupRoaming, BackupNodes)
**.overlayType = "oversim.overlay.quon.OverlayQuon"
**.overlay.*.contactBackupIntervall = 0s
**.targetOverlayTerminalNum = 256
**.areaDimension = 5000.0
**.tier1Type = "oversim.applications.simplegameclient.SimpleGameClientModules"
**.tier1.*.movementGenerator = "groupRoaming"
**.tier1.*.groupSize = 16
*.globalObserver.numGlobalFunctions = 1
*.globalObserver.globalFunctions[0].functionType = "oversim.overlay.quon.GlobalQuonModules"

[Config QuonDynAoi]
description = Quon (SimpleUnderlayNetwork, GroupRoaming, DynamicAOI)
**.overlayType = "oversim.overlay.quon.OverlayQuon"
**.overlay.*.connectionLimit = 20
**.targetOverlayTerminalNum = 256
**.minAOIWidth = 10.0
**.areaDimension = 5000.0
**.tier1Type = "oversim.applications.simplegameclient.SimpleGameClientModules"
**.tier1.*.movementGenerator = "groupRoaming"
**.tier1.*.groupSize = 16
*.globalObserver.numGlobalFunctions = 1
*.globalObserver.globalFunctions[0].functionType = "oversim.overlay.quon.GlobalQuonModules"

[Config QuonNoBackupDynAoi]
description = Quon (SimpleUnderlayNetwork, GroupRoaming, BackupNodes, DynamicAOI)
**.overlayType = "oversim.overlay.quon.OverlayQuon"
**.overlay.*.connectionLimit = 20
**.targetOverlayTerminalNum = 256
**.minAOIWidth = 10.0
**.areaDimension = 5000.0
**.tier1Type = "oversim.applications.simplegameclient.SimpleGameClientModules"
**.tier1.*.movementGenerator = "groupRoaming"
**.tier1.*.groupSize = 16
*.globalObserver.numGlobalFunctions = 1
*.globalObserver.globalFunctions[0].functionType = "oversim.overlay.quon.GlobalQuonModules"

include ./default.ini
